-- Generated by UDA Middle Layer
-- Source: mxspe001.dat
-- Date:   2026-03-16 09:13:39

RUNSPEC

DIMENS
  10  10  3 /

OIL
WATER
GAS
DISGAS

FIELD

WELLDIMS
  1  3  1  1 /

TABDIMS
  1 /

GRID

DX
  1000 /

DY
  1000 /

DZ
  50  30  20  /

TOPS
  100*8400 /

PORO
  0.3 /

PERMX
  200  50  500  /

PERMY
  200  50  500  /

PERMZ
  20  40  60  /

PROPS

PVTW
  14.7  1.041  2.988600E-06  0.31  0 /

DENSITY
  46.244  62.238  0.0647 /

ROCK
  14.7  3.000000E-06 /

PVTO
--         rs           p          bo        viso
               1            14.7           1.062            1.04  /
            90.5           264.7            1.15           0.975  /
             180           514.7           1.207            0.91  /
             371          1014.7           1.295            0.83  /
             636          2014.7           1.435           0.695  /
             775            2514             1.5           0.641  /
             930          3014.7           1.565           0.594  /
            1270          4014.7           1.695            0.51  /
            1618          5014.7           1.827           0.449  /
            2984          9014.7           2.357           0.203  /
/

PVDG
--          p          bg        visg
            14.7        0.166667           0.008  /
           264.7       0.0120919          0.0096  /
           514.7      0.00628931          0.0112  /
          1014.7      0.00319489           0.014  /
          2014.7       0.0016129          0.0189  /
            2514      0.00129366          0.0208  /
          3014.7      0.00107991          0.0228  /
          4014.7    8.110300E-04          0.0268  /
          5014.7    6.489293E-04          0.0309  /
          9014.7    3.859514E-04           0.047  /
/

-- ** WARNING: No rock-fluid tables found in JSON **
SOLUTION

EQUIL
  8400  4800  9500  0  7000  0 /

SUMMARY

ALL
WBHP
WGOR

SCHEDULE

END
